 &nam_dyn
  FHOUT=3, FHMAX=24, IGEN=0, DELTIM=900,
  FHOUT_hf=1, FHMAX_hf=0,
  FHRES=180, FHROT=0, FHDFI=0, nsout=0,
  nxpt=1, nypt=2, jintmx=2, lonf=192, latg=94,
  jcap=62,   levs=64,  levr=0,
  ntrac=3, ntoz=2, ntcw=3, ncld=1,
  ngptc=8, hybrid=.true., tfiltc=0.85,
  gen_coord_hybrid=.false., zflxtvd=.false.,
  spectral_loop=2, explicit=.false.,
  ndslfv=.false.,mass_dp=.false.,process_split=.false.,
  reduced_grid=.true.,lsidea=.false.,
  wam_ipe_coupling=.false.,
  height_dependent_g=.false.,
  semi_implicit_temp_profile=.false.,
  thermodyn_id=1, sfcpress_id=1,
  dfilevs=64,
  SHUM=0.0, -999., -999., -999, -999,SHUM_TAU=2.16E4, 1.728E5, 6.912E5, 7.776E6, 3.1536E7,SHUM_LSCALE=500.E3, 1000.E3, 2000.E3, 2000.E3, 2000.E3,ISEED_SHUM=0,
  SPPT=0.0,0.0,0.0,0.0,0.0,SPPT_TAU=21600,2592500,25925000,7776000,31536000,SPPT_LSCALE=500000,1000000,2000000,2000000,2000000,SPPT_LOGIT=.TRUE.,ISEED_SPPT=0,
  SKEB=0.0, -999., -999., -999, -999,SKEB_TAU=2.164E4, 1.728E5, 2.592E6, 7.776E6, 3.1536E7,SKEB_LSCALE=1000.E3, 1000.E3, 2000.E3, 2000.E3, 2000.E3,SKEB_VFILT=40,SKEB_DISS_SMOOTH=12,ISEED_SKEB=0,
  VC=0.0,VC_TAU=4.32E4, 1.728E5, 2.592E6, 7.776E6, 3.1536E7,VC_LSCALE=1000.E3, 1000.E3, 2000.E3, 2000.E3, 2000.E3,VCAMP=0.0, -999., -999., -999, -999,ISEED_VC=0,
  nemsio_in=.false.,nemsio_out=.false.,sigio_out=.true.,zflxtvd=.false.,shuff_lats_a=.true.,hdif_fac=1.0,hdif_fac2=1.0,settls_dep3ds=.false.,settls_dep3dg=.false.,redgg_a=.true.,gg_tracers=.false.,sl_epsln=0.01,ref_temp=300.0,DELTIM=900,yhalo=10,phigs_d=60.0,ldfi_spect=.true.,cdamp=20000.0,1.5,NTKE=0,NTIW=0,NTLNC=0,NTINC=0,NTO=0,NTO2=0 /
 &nam_phy
  FHOUT=3, FHMAX=24, IGEN=0, DELTIM=900,
  FHOUT_hf=1, FHMAX_hf=0,
  FHRES=180, FHROT=0, FHCYC=24, FHDFI=0,
  FHZER=6, FHLWR=3600, FHSWR=3600,nsout=0,
  nxpt=1, nypt=2, jintmx=2, lonr=192, latr=94,
  jcap=62, levs=64, levr=0, reduced_grid=.true.,
  ntrac=3, ntoz=2, ntcw=3, ncld=1,
  lsoil=4, nmtvr=14, lsidea=.false., 
  f107_kp_size=56, 
  f107_kp_interval=10800,
  f107_kp_skip_size=0,
  ngptc=8, hybrid=.true., tfiltc=0.85,
  gen_coord_hybrid=.false.,
  thermodyn_id=1, sfcpress_id=1,
  nstf_name=0,0,0,0,0,nst_anl=.false.,
  SHUM=0.0, -999., -999., -999, -999, SPPT=0.0,0.0,0.0,0.0,0.0,SKEB=0.0, -999., -999., -999, -999, VC=0.0,VCAMP=0.0, -999., -999., -999, -999
  IEMS=0,ISOL=1,IAER=111,ICO2=2,ras=.false.,zhao_mic=.true.,lsm=1,old_monin=.false.,imfshalcnv=1,imfdeepcnv=1,shal_cnv=.true.,shuff_lats_r=.true.,ialb=0,isot=0,ivegsrc=2,pre_rad=.false.,random_clds=.false.,iovr_lw=1,iovr_sw=1,ISOL=1,ICO2=2,IAER=111,ictm=0,use_ufo=.false.,ldiag3d=.false.,ncw=200,25,crtrh=0.85,0.85,0.85,flgmin=0.150,0.200,cnvgwd=.false.,cgwf=0.1, 0.1,ctei_rm=10.0,10.0,mstrat=.false.,ccnorm=.false.,mom4ice=.false.,lgoc3d=.false.,trans_trac=.true.,cal_pre=.false.,bkgd_vdif_m=1.0,bkgd_vdif_h=1.0,bkgd_vdif_s=1.0,climate=.false.,psautco=6.0e-4,3.0e-4,prautco=2.0e-4, 1.0e-4,evpco=2.0e-5,wminco=0.0e-5,1.0e-5,CCWF=1.0,1.0,dlqf=0.5,0.5,shal_cnv=.true.,nemsio_in=.false.,nemsio_out=.false.,cdmbgwd=1.0,1.0,grid_aldata=.false.,sfcio_out=.true.,dtphys=900,DELTIM=900,semilag=.false.,redrag=.false.,hybedmf=.false.,dspheat=.false.,cnvcld=.false.,pdfcld=.false.,shcnvcw=.false.,isubc_lw=2,isubc_sw=2,fixtrc=.false.,.false.,.false.,gg_tracers=.false.,A2OI_OUT=.false.,CPLFLX=.false.,NGRID_A2OI=48,NTKE=0,NTIW=0,NTLNC=0,NTINC=0,NTO=0,NTO2=0 /
 &TRACER_CONSTANT
  RI=  286.05,   461.50, 173.2247,    0.0,CPI= 1004.6,   1846.0, 820.2391,    0.0, /
 &SOIL_VEG
  LPARAM = .FALSE./
 &NAMSFC
  FNGLAC="/scratch4/NCEPDEV/global/save/Shrinivas.Moorthi/para/fix/fix_am/global_glacier.2x2.grb",
  FNMXIC="/scratch4/NCEPDEV/global/save/Shrinivas.Moorthi/para/fix/fix_am/global_maxice.2x2.grb",
  FNTSFC="/scratch4/NCEPDEV/global/save/Shrinivas.Moorthi/para/fix/fix_am/RTGSST.1982.2012.monthly.clim.grb",
  FNSNOC="/scratch4/NCEPDEV/global/save/Shrinivas.Moorthi/para/fix/fix_am/global_snoclim.1.875.grb",
  FNZORC="sib",
  FNALBC="/scratch4/NCEPDEV/global/save/Shrinivas.Moorthi/para/fix/fix_am/global_albedo4.1x1.grb",
  FNALBC2="/scratch4/NCEPDEV/global/save/Shrinivas.Moorthi/para/fix/fix_am/global_albedo4.1x1.grb",
  FNAISC="/scratch4/NCEPDEV/global/save/Shrinivas.Moorthi/para/fix/fix_am/CFSR.SEAICE.1982.2012.monthly.clim.grb",
  FNTG3C="/scratch4/NCEPDEV/global/save/Shrinivas.Moorthi/para/fix/fix_am/global_tg3clim.2.6x1.5.grb",
  FNVEGC="/scratch4/NCEPDEV/global/save/Shrinivas.Moorthi/para/fix/fix_am/global_vegfrac.0.144.decpercent.grb",
  FNVETC="/scratch4/NCEPDEV/global/save/Shrinivas.Moorthi/para/fix/fix_am/global_vegtype.1x1.grb",
  FNSOTC="/scratch4/NCEPDEV/da/save/George.Gayno/gfs_soil_veg_alb_fy17_2/global_shared.v14.1.0/fix/fix_am/global_soiltype.1x1.grb",
  FNSMCC="/scratch4/NCEPDEV/global/save/Shrinivas.Moorthi/para/fix/fix_am/global_soilmgldas.t62.192.94.grb",
  FNMSKH="/scratch4/NCEPDEV/global/save/Shrinivas.Moorthi/para/fix/fix_am/seaice_newland.grb",
  FNTSFA="",
  FNACNA="",
  FNSNOA="",
  FNVMNC="/scratch4/NCEPDEV/global/save/Shrinivas.Moorthi/para/fix/fix_am/global_shdmin.0.144x0.144.grb",
  FNVMXC="/scratch4/NCEPDEV/global/save/Shrinivas.Moorthi/para/fix/fix_am/global_shdmax.0.144x0.144.grb",
  FNSLPC="/scratch4/NCEPDEV/global/save/Shrinivas.Moorthi/para/fix/fix_am/global_slope.1x1.grb",
  FNABSC="/scratch4/NCEPDEV/global/save/Shrinivas.Moorthi/para/fix/fix_am/global_snoalb.1x1.grb",
  LDEBUG=.false.,
  FSMCL(2)=99999,
  FSMCL(3)=99999,
  FSMCL(4)=99999,
  FTSFS=0.0,
  FAISS=0.0,
  FSNOL=99999,
  FSICL=99999,
  FTSFL=99999,
  FAISL=99999,
  FVETL=99999,
  FSOTL=99999,
  FvmnL=99999,
  FvmxL=99999,
  FSLPL=99999,
  FABSL=99999,
  FSNOS=99999,
  FSICS=99999,

    /
 &NAMPGB
   /
